-------------------------------------------------------
          Amber 16 PMEMD                              2016
          -------------------------------------------------------

  [-O]verwriting output

File Assignments:

 Here is the input file:

Equilibration with solute restrictions
&cntrl
imin = 0,                           ! No Minimization
nmropt = 0,                         ! No NMR restraints read

! Nature and format of the input
ntx = 5,                            ! Coordinates but no velocities will be rea
irest = 1,                          ! Do not run a new simulation

! Nature and format of the output
ntxo = 1,                           ! rstrt file in ASCII format
ntpr = 500,                         ! inf in output every ntpr steps
ntwr = 500,                         ! rstrt file every ntwr steps
ntwx = 500,                         ! mdcrd file every ntwx steps
ntwv = 0,                           ! mdvel without velocities
ntwe = 0,                           ! Energies and temperatures not written in
idecomp = 0,                        ! No energy decomposition
iwrap = 1,                          ! Coordinates of the restart and mdcrd file

! Frozen or restrained atoms
ibelly = 0,                         ! No frozen atoms
ntr=1,                              ! Harmonic potential restraints
restraint_wt = 0.1,                ! The weight for the positional restraints
restraintmask = ':1-298@N,CA,C,O',  ! restrained residues

! Molecular dynamics
nstlim = 50000,                     ! Number of MD-steps
dt = 0.002,                         ! Time step

! Temperature regulation
ntt = 3,                            ! Langevin thermostat
gamma_ln = 5,                       ! Gamma constant for Langevin
!temp0 = 300.0,                     ! Reference T at which the system is to be
tempi = 300.0,                      ! Initial T
ig = -1,                            ! Seed for the RNG

! P and V regulation
ntp = 1,                            ! Constant P. Isotropic scaling
barostat = 1,                       ! Berendsen barostat
taup = 1,                           ! Pressure relaxation time
nrespa = 1,                         ! Evaluate at each step
ntb = 2,                            ! Periodic box for constant P

! SHAKE variables
ntc = 2,                            ! Bonds involving H are constrained
ntf = 2,                            ! Bond interaction involving H are ommited.

cut = 10.0,                         ! Nonbonded cutoff
/
&end

Note: ig = -1. Setting random seed to   168104 based on wallclock time in
      microseconds.

--------------------------------------------------------------------------------
   1.  RESOURCE   USE:
--------------------------------------------------------------------------------

 getting new box info from bottom of inpcrd
 NATOM  =   31841 NTYPES =      16 NBONH =   29650 MBONA  =    2207
 NTHETH =    4442 MTHETA =    3007 NPHIH =    9478 MPHIA  =    9572
 NHPARM =       0 NPARM  =       0 NNB   =   59506 NRES   =    9539
 NBONA  =    2207 NTHETA =    3007 NPHIA =    9572 NUMBND =      59
 NUMANG =     136 NPTRA  =     166 NATYP =      30 NPHB   =       1
 IFBOX  =       2 NMXRS  =      24 IFCAP =       0 NEXTRA =       0
 NCOPY  =       0

     BOX TYPE: TRUNCATED OCTAHEDRON

--------------------------------------------------------------------------------
   2.  CONTROL  DATA  FOR  THE  RUN
--------------------------------------------------------------------------------

default_name

General flags:
     imin    =       0, nmropt  =       0

Nature and format of input:
     ntx     =       5, irest   =       1, ntrx    =       1

Nature and format of output:
     ntxo    =       1, ntpr    =     500, ntrx    =       1, ntwr    =     500
     iwrap   =       1, ntwx    =     500, ntwv    =       0, ntwe    =       0
     ioutfm  =       1, ntwprt  =       0, idecomp =       0, rbornstat=      0

Potential function:
     ntf     =       2, ntb     =       2, igb     =       0, nsnb    =      25
     ipol    =       0, gbsa    =       0, iesp    =       0
     dielc   =   1.00000, cut     =  10.00000, intdiel =   1.00000

Frozen or restrained atoms:
     ibelly  =       0, ntr     =       1
     restraint_wt =   0.10000

Molecular dynamics:
     nstlim  =     50000, nscm    =         0, nrespa  =         1
     t       =   0.00000, dt      =   0.00200, vlimit  =  -1.00000

Langevin dynamics temperature regulation:
     ig      =  168104
     temp0   = 300.00000, tempi   = 300.00000, gamma_ln=   5.00000

Pressure regulation:
     ntp     =       1
     pres0   =   1.00000, comp    =  44.60000, taup    =   1.00000

SHAKE:
     ntc     =       2, jfastw  =       0
     tol     =   0.00001

Ewald parameters:
     verbose =       0, ew_type =       0, nbflag  =       1, use_pme =       1
     vdwmeth =       1, eedmeth =       1, netfrc  =       1
     Box X =   74.335   Box Y =   74.335   Box Z =   74.335
     Alpha =  109.471   Beta  =  109.471   Gamma =  109.471
     NFFT1 =   80       NFFT2 =   80       NFFT3 =   80
     Cutoff=   10.000   Tol   =0.100E-04
     Ewald Coefficient =  0.27511
     Interpolation order =    4

    LOADING THE CONSTRAINED ATOMS AS GROUPS

   5.  REFERENCE ATOM COORDINATES

  default_name
     Mask :1-298@N,CA,C,O; matches  1156 atoms

--------------------------------------------------------------------------------
   3.  ATOMIC COORDINATES AND VELOCITIES
--------------------------------------------------------------------------------

default_name
 begin time read from input coords =  2340.000 ps

 Number of triangulated 3-point waters found:     9223

     Sum of charges from parm topology file =  -0.00000024
     Forcing neutrality...

--------------------------------------------------------------------------------
   4.  RESULTS
 NSTEP =      500   TIME(PS) =    2341.000  TEMP(K) =   298.64  PRESS =  -170.8
 Etot   =    -78772.7242  EKtot   =     19546.6406  EPtot      =    -98319.3648
 BOND   =       784.9044  ANGLE   =      1942.7190  DIHED      =      3422.4558
 1-4 NB =       985.3502  1-4 EEL =     12823.0150  VDWAALS    =     10416.0365
 EELEC  =   -128714.4572  EHBOND  =         0.0000  RESTRAINT  =        20.6114
 EAMBER (non-restraint)  =    -98339.9762
 EKCMT  =      8238.8831  VIRIAL  =      9406.0254  VOLUME     =    316417.7411
                                                    Density    =         1.0357
 ------------------------------------------------------------------------------

      A V E R A G E S   O V E R     100 S T E P S

 NSTEP =    50000   TIME(PS) =    2440.000  TEMP(K) =   300.04  PRESS =    -0.9
 Etot   =    -78653.9266  EKtot   =     19638.0727  EPtot      =    -98291.9993
 BOND   =       813.9522  ANGLE   =      1933.1860  DIHED      =      3400.5891
 1-4 NB =       990.3225  1-4 EEL =     12806.8664  VDWAALS    =     10592.4912
 EELEC  =   -128862.5574  EHBOND  =         0.0000  RESTRAINT  =        33.1507
 EAMBER (non-restraint)  =    -98325.1499
 EKCMT  =      8291.5980  VIRIAL  =      8297.8956  VOLUME     =    316918.9592
                                                    Density    =         1.0341
 ------------------------------------------------------------------------------

      R M S  F L U C T U A T I O N S

 NSTEP =    50000   TIME(PS) =    2440.000  TEMP(K) =     1.54  PRESS =   143.4
 Etot   =       179.1138  EKtot   =       100.8926  EPtot      =       147.5224
 BOND   =        24.0879  ANGLE   =        33.7202  DIHED      =        18.9977
 1-4 NB =        13.9574  1-4 EEL =        37.7624  VDWAALS    =       125.1763
 EELEC  =       209.9354  EHBOND  =         0.0000  RESTRAINT  =         3.2500
 EAMBER (non-restraint)  =       144.2724
 EKCMT  =        69.0401  VIRIAL  =       973.1454  VOLUME     =       496.3273
                                                    Density    =         0.0016
 ------------------------------------------------------------------------------
