-------------------------------------------------------
          Amber 16 PMEMD                              2016
          -------------------------------------------------------

  [-O]verwriting output

File Assignments:

 Here is the input file:

Equilibration with solute restrictions
&cntrl
imin = 0,                           ! No Minimization
nmropt = 0,                         ! No NMR restraints read

! Nature and format of the input
ntx = 5,                            ! Coordinates but no velocities will be rea
irest = 1,                          ! Do not run a new simulation

! Nature and format of the output
ntxo = 1,                           ! rstrt file in ASCII format
ntpr = 500,                         ! inf in output every ntpr steps
ntwr = 500,                         ! rstrt file every ntwr steps
ntwx = 500,                         ! mdcrd file every ntwx steps
ntwv = 0,                           ! mdvel without velocities
ntwe = 0,                           ! Energies and temperatures not written in
idecomp = 0,                        ! No energy decomposition
iwrap = 1,                          ! Coordinates of the restart and mdcrd file

! Frozen or restrained atoms
ibelly = 0,                         ! No frozen atoms
ntr=1,                              ! Harmonic potential restraints
restraint_wt = 0.1,                ! The weight for the positional restraints
restraintmask = ':1-199@N,CA,C,O',  ! restrained residues

! Molecular dynamics
nstlim = 50000,                     ! Number of MD-steps
dt = 0.002,                         ! Time step

! Temperature regulation
ntt = 3,                            ! Langevin thermostat
gamma_ln = 5,                       ! Gamma constant for Langevin
!temp0 = 300.0,                     ! Reference T at which the system is to be
tempi = 300.0,                      ! Initial T
ig = -1,                            ! Seed for the RNG

! P and V regulation
ntp = 1,                            ! Constant P. Isotropic scaling
barostat = 1,                       ! Berendsen barostat
taup = 1,                           ! Pressure relaxation time
nrespa = 1,                         ! Evaluate at each step
ntb = 2,                            ! Periodic box for constant P

! SHAKE variables
ntc = 2,                            ! Bonds involving H are constrained
ntf = 2,                            ! Bond interaction involving H are ommited.

cut = 10.0,                         ! Nonbonded cutoff
/
&end

Note: ig = -1. Setting random seed to   611368 based on wallclock time in
      microseconds.

--------------------------------------------------------------------------------
   1.  RESOURCE   USE:
--------------------------------------------------------------------------------

 getting new box info from bottom of inpcrd
 NATOM  =   29895 NTYPES =      17 NBONH =   28331 MBONA  =    1592
 NTHETH =    3754 MTHETA =    2161 NPHIH =    7401 MPHIA  =    6841
 NHPARM =       0 NPARM  =       0 NNB   =   53417 NRES   =    9098
 NBONA  =    1592 NTHETA =    2161 NPHIA =    6841 NUMBND =      84
 NUMANG =     194 NPTRA  =     195 NATYP =      45 NPHB   =       1
 IFBOX  =       2 NMXRS  =      84 IFCAP =       0 NEXTRA =       0
 NCOPY  =       0

     BOX TYPE: TRUNCATED OCTAHEDRON

--------------------------------------------------------------------------------
   2.  CONTROL  DATA  FOR  THE  RUN
--------------------------------------------------------------------------------

default_name

General flags:
     imin    =       0, nmropt  =       0

Nature and format of input:
     ntx     =       5, irest   =       1, ntrx    =       1

Nature and format of output:
     ntxo    =       1, ntpr    =     500, ntrx    =       1, ntwr    =     500
     iwrap   =       1, ntwx    =     500, ntwv    =       0, ntwe    =       0
     ioutfm  =       1, ntwprt  =       0, idecomp =       0, rbornstat=      0

Potential function:
     ntf     =       2, ntb     =       2, igb     =       0, nsnb    =      25
     ipol    =       0, gbsa    =       0, iesp    =       0
     dielc   =   1.00000, cut     =  10.00000, intdiel =   1.00000

Frozen or restrained atoms:
     ibelly  =       0, ntr     =       1
     restraint_wt =   0.10000

Molecular dynamics:
     nstlim  =     50000, nscm    =         0, nrespa  =         1
     t       =   0.00000, dt      =   0.00200, vlimit  =  -1.00000

Langevin dynamics temperature regulation:
     ig      =  611368
     temp0   = 300.00000, tempi   = 300.00000, gamma_ln=   5.00000

Pressure regulation:
     ntp     =       1
     pres0   =   1.00000, comp    =  44.60000, taup    =   1.00000

SHAKE:
     ntc     =       2, jfastw  =       0
     tol     =   0.00001

Ewald parameters:
     verbose =       0, ew_type =       0, nbflag  =       1, use_pme =       1
     vdwmeth =       1, eedmeth =       1, netfrc  =       1
     Box X =   72.905   Box Y =   72.905   Box Z =   72.905
     Alpha =  109.471   Beta  =  109.471   Gamma =  109.471
     NFFT1 =   80       NFFT2 =   80       NFFT3 =   80
     Cutoff=   10.000   Tol   =0.100E-04
     Ewald Coefficient =  0.27511
     Interpolation order =    4

    LOADING THE CONSTRAINED ATOMS AS GROUPS

   5.  REFERENCE ATOM COORDINATES

  default_name
     Mask :1-199@N,CA,C,O; matches   792 atoms

--------------------------------------------------------------------------------
   3.  ATOMIC COORDINATES AND VELOCITIES
--------------------------------------------------------------------------------

default_name
 begin time read from input coords =  2540.000 ps

 Number of triangulated 3-point waters found:     8895

     Sum of charges from parm topology file =  -0.00100209
     Forcing neutrality...

--------------------------------------------------------------------------------
   4.  RESULTS
 NSTEP =      500   TIME(PS) =    2541.000  TEMP(K) =   298.53  PRESS =   -15.3
 Etot   =    -71640.8547  EKtot   =     18198.8457  EPtot      =    -89839.7004
 BOND   =       586.4095  ANGLE   =      1662.6380  DIHED      =      2496.9975
 1-4 NB =       702.5401  1-4 EEL =      8341.7789  VDWAALS    =     10775.5648
 EELEC  =   -114423.3333  EHBOND  =         0.0000  RESTRAINT  =        17.7041
 EAMBER (non-restraint)  =    -89857.4045
 EKCMT  =      7962.4027  VIRIAL  =      8060.9645  VOLUME     =    298059.5073
                                                    Density    =         1.0169
 ------------------------------------------------------------------------------

      A V E R A G E S   O V E R     100 S T E P S

 NSTEP =    50000   TIME(PS) =    2640.000  TEMP(K) =   299.83  PRESS =    18.8
 Etot   =    -71474.0528  EKtot   =     18277.9181  EPtot      =    -89751.9710
 BOND   =       599.1265  ANGLE   =      1635.8682  DIHED      =      2477.5954
 1-4 NB =       709.8580  1-4 EEL =      8367.9367  VDWAALS    =     10770.2706
 EELEC  =   -114336.0933  EHBOND  =         0.0000  RESTRAINT  =        23.4669
 EAMBER (non-restraint)  =    -89775.4378
 EKCMT  =      7970.5966  VIRIAL  =      7849.3952  VOLUME     =    298637.5339
                                                    Density    =         1.0150
 ------------------------------------------------------------------------------

      R M S  F L U C T U A T I O N S

 NSTEP =    50000   TIME(PS) =    2640.000  TEMP(K) =     1.72  PRESS =   126.2
 Etot   =       176.5137  EKtot   =       104.7804  EPtot      =       132.6282
 BOND   =        20.7698  ANGLE   =        32.6220  DIHED      =        19.0512
 1-4 NB =        10.5094  1-4 EEL =        29.8728  VDWAALS    =       144.8152
 EELEC  =       224.9428  EHBOND  =         0.0000  RESTRAINT  =         2.4487
 EAMBER (non-restraint)  =       130.1795
 EKCMT  =        68.5520  VIRIAL  =       812.8238  VOLUME     =       545.2642
                                                    Density    =         0.0019
 ------------------------------------------------------------------------------
